!VERSION:  High temperature POLIMI PRF+PAH+soot 
!AUTHORS: C. Saggese, S. Ferrario, J. Camacho, A. Cuoci, A. Frassoldati, E. Ranzi, H. Wang, T. Faravelli
!TITLE: Kinetic Modeling of Particle Size Distribution of Soot in a Premixed Burner-Stabilized Stagnation Ethylene Flame
!WEBSITE: http://creckmodeling.chem.polimi.it/
THERMO
  300.   1000.   4000.
H                       H   1               G    300.00   4000.00 1000.00      1
 .250000000E+01 .000000000E+00 .000000000E+00 .000000000E+00 .000000000E+00    2
 .254716200E+05-.460117600E+00 .250000000E+01 .000000000E+00 .000000000E+00    3
 .000000000E+00 .000000000E+00 .254716200E+05-.460117600E+00                   4
OH                      H   1O   1          G    300.00   4000.00 1710.00      1
 .285376040E+01 .102994334E-02-.232666477E-06 .193750704E-10-.315759847E-15    2
 .369949720E+04 .578756825E+01 .341896226E+01 .319255801E-03-.308292717E-06    3
 .364407494E-09-.100195479E-12 .345264448E+04 .254433372E+01                   4
C2H2                    C   2H   2          G    300.00   4000.00 1000.00      1
 .443677300E+01 .537603910E-02-.191281610E-05 .328637890E-09-.215670900E-13    2
 .256676622E+05-.280035722E+01 .201356200E+01 .151904500E-01-.161631910E-04    3
 .907899180E-08-.191274600E-11 .261244400E+05 .880537800E+01                   4
BIN18B                  C   0H   0          G    300.00   5000.00 1000.00      1&
C   2500000 H    125000
-.935952400E+06 .152679900E+05-.101597900E+02 .374308000E-02-.383744300E-06    2
 .172190700E+10 .388746500E+07-.935952400E+06 .152679900E+05-.101597900E+02    3
 .374308000E-02-.383744300E-06 .172190700E+10 .388746500E+07                   4
!test multi-line with space before '&'
BIN18A                  C   0H   0          G    300.00   5000.00 1000.00      1&
C   2500000 &
H    500000
-.861575200E+06 .161550100E+05-.104428800E+02 .364871700E-02-.402617000E-06    2
 .230547500E+10 .440198100E+07-.861575200E+06 .161550100E+05-.104428800E+02    3
 .364871700E-02-.402617000E-06 .230547500E+10 .440198100E+07                   4
! test multi-line without space before '&'
BIN19B                  C   0H   0          G    300.00   5000.00 1000.00      1&
C   5000000&
H    250000
-.187190500E+07 .305359800E+05-.203195800E+02 .748616000E-02-.767488700E-06    2
 .344381400E+10 .777493000E+07-.187190500E+07 .305359800E+05-.203195800E+02    3
 .748616000E-02-.767488700E-06 .344381400E+10 .777493000E+07                   4
BIN19A                  C   0H   0          G    300.00   5000.00 1000.00      1&
C   5000000 H   1000000
-.172315000E+07 .323100200E+05-.208857600E+02 .729743300E-02-.805234000E-06    2
 .461095000E+10 .880396300E+07-.172315000E+07 .323100200E+05-.208857600E+02    3
 .729743300E-02-.805234000E-06 .461095000E+10 .880396300E+07                   4
BIN20B                  C   0H   0          G    300.00   5000.00 1000.00      1&
C  10000000 H    500000
-.374381000E+07 .610719700E+05-.406391500E+02 .149723200E-01-.153497700E-05    2
 .688762800E+10 .155498600E+08-.374381000E+07 .610719700E+05-.406391500E+02    3
 .149723200E-01-.153497700E-05 .688762800E+10 .155498600E+08                   4
BIN20A                  C   0H   0          G    300.00   5000.00 1000.00      1&
C  10000000 H   2000000
-.344630100E+07 .646200300E+05-.417715100E+02 .145948700E-01-.161046800E-05    2
 .922190100E+10 .176079300E+08-.344630100E+07 .646200300E+05-.417715100E+02    3
 .145948700E-01-.161046800E-05 .922190100E+10 .176079300E+08                   4
BIN18BJ                 C   0H   0          G    300.00   5000.00 1000.00      1&
C   2500000 H    124999
-.935952400E+06 .152679900E+05-.101597900E+02 .374308000E-02-.383744300E-06    2
 .172196700E+10 .388746500E+07-.935952400E+06 .152679900E+05-.101597900E+02    3
 .374308000E-02-.383744300E-06 .172196700E+10 .388746500E+07                   4
BIN18AJ                 C   0H   0          G    300.00   5000.00 1000.00      1&
C   2500000 H    499999
-.861575200E+06 .161550100E+05-.104428800E+02 .364871700E-02-.402617000E-06    2
 .230553500E+10 .440198100E+07-.861575200E+06 .161550100E+05-.104428800E+02    3
 .364871700E-02-.402617000E-06 .230553500E+10 .440198100E+07                   4
BIN19BJ                 C   0H   0          G    300.00   5000.00 1000.00      1&
C   5000000 H    249999
-.187190500E+07 .305359800E+05-.203195800E+02 .748616000E-02-.767488700E-06    2
 .344387400E+10 .777493000E+07-.187190500E+07 .305359800E+05-.203195800E+02    3
 .748616000E-02-.767488700E-06 .344387400E+10 .777493000E+07                   4
BIN19AJ                 C   0H   0          G    300.00   5000.00 1000.00      1&
C   5000000 H    999999
-.172315000E+07 .323100200E+05-.208857600E+02 .729743300E-02-.805234000E-06    2
 .461101000E+10 .880396300E+07-.172315000E+07 .323100200E+05-.208857600E+02    3
 .729743300E-02-.805234000E-06 .461101000E+10 .880396300E+07                   4
END
