THERMO
  300.0000   1000.00 5000.0000
! Refitting species N2:
!   max difference Cp/R = 5.4150e-10 at T =   989.5896 K
!   max difference H/RT = 1.1537e-09 at T =  1001.2012 K
!   max difference S/R  = 9.4016e-09 at T =  1001.2012 K
!   T_match =  1000.000000 jump
!   Delta(Cp/R, H/RT, S/R) = ( 4.441e-16, 0.000e+00, 0.000e+00)
N2                G 8/02N   2    0    0    0G  200.0000 6000.0000 1000.00      1
 2.95257637e+00 1.39690040e-03-4.92631603e-07 7.86010195e-11-4.60755204e-15    2
-9.24423064e+02 5.87156478e+00 3.58256851e+00-5.58781435e-04 7.83391557e-07    3
 8.73631630e-10-7.49971631e-13-1.05160018e+03 2.75873430e+00                   4
! Refitting species H2:
!   max difference Cp/R = 3.1124e-08 at T =   995.3954 K
!   max difference H/RT = 6.9337e-09 at T =  1001.2012 K
!   max difference S/R  = 8.4227e-09 at T =  1001.2012 K
!   T_match =  1000.000000 jump
!   Delta(Cp/R, H/RT, S/R) = ( 1.776e-15, 4.441e-16, 0.000e+00)
H2                TPIS78H   2    0    0    0G  200.0000 6000.0000 1000.00      1
 2.93286575e+00 8.26608026e-04-1.46402364e-07 1.54100414e-11-6.88804800e-16    2
-8.16223893e+02-1.02647800e+00 2.68763449e+00 5.08352804e-03-1.09134762e-05    3
 9.75972267e-09-2.98961637e-12-9.48720677e+02-7.06735876e-01                   4
! Refitting species H:
!   max difference Cp/R = 1.6431e-14 at T =   977.9780 K
!   max difference H/RT = 1.4211e-14 at T =   217.4174 K
!   max difference S/R  = 3.9080e-14 at T =  1001.2012 K
!   T_match =  1000.000000 jump
!   Delta(Cp/R, H/RT, S/R) = ( 0.000e+00, 0.000e+00, 0.000e+00)
H                 L 6/94H   1    0    0    0G  200.0000 6000.0000 1000.00      1
 2.50000000e+00 0.00000000e+00 0.00000000e+00 0.00000000e+00 0.00000000e+00    2
 2.54736600e+04-4.46682850e-01 2.50000000e+00 6.59007328e-16-1.84698338e-18    3
 2.10269281e-21-8.18279750e-25 2.54736600e+04-4.46682850e-01                   4
! Refitting species O2:
!   max difference Cp/R = 6.8110e-09 at T =   995.3954 K
!   max difference H/RT = 3.6754e-09 at T =  1001.2012 K
!   max difference S/R  = 2.8803e-08 at T =  2278.4785 K
!   T_match =  1000.000000 jump
!   Delta(Cp/R, H/RT, S/R) = ( 8.882e-16, 0.000e+00, 0.000e+00)
O2                RUS 89O   2    0    0    0G  200.0000 6000.0000 1000.00      1
 3.66096065e+00 6.56365811e-04-1.41149627e-07 2.05797935e-11-1.29913436e-15    2
-1.21490829e+03 3.41609024e+00 3.66627114e+00-2.01629594e-03 6.94873245e-06    3
-6.16244109e-09 1.75919093e-12-1.05352472e+03 4.12801180e+00                   4
! Refitting species O:
!   max difference Cp/R = 8.5895e-10 at T =   995.3954 K
!   max difference H/RT = 4.2429e-08 at T =  1001.2012 K
!   max difference S/R  = 2.6250e-08 at T =  1001.2012 K
!   T_match =  1000.000000 jump
!   Delta(Cp/R, H/RT, S/R) = ( 0.000e+00, 0.000e+00, 0.000e+00)
O                 L 1/90O   1    0    0    0G  200.0000 6000.0000 1000.00      1
 2.54363697e+00-2.73162486e-05-4.19029520e-09 4.95481845e-12-4.79553694e-16    2
 2.92265295e+04 4.92264674e+00 3.11201700e+00-2.80464785e-03 5.23974570e-06    3
-4.42444249e-09 1.39393333e-12 2.91273034e+04 2.27964275e+00                   4
! Refitting species H2O:
!   max difference Cp/R = 4.8717e-09 at T =   995.3954 K
!   max difference H/RT = 5.6512e-08 at T =  1001.2012 K
!   max difference S/R  = 8.9445e-09 at T =  1001.2012 K
!   T_match =  1000.000000 jump
!   Delta(Cp/R, H/RT, S/R) = ( 0.000e+00, 0.000e+00, 0.000e+00)
H2O               L 5/89H   2 O  1    0    0G  200.0000 6000.0000 1000.00      1
 2.67703890e+00 2.97318160e-03-7.73768890e-07 9.44335140e-11-4.26899910e-15    2
-2.98862361e+04 6.88231730e+00 4.23584015e+00-2.35035858e-03 7.44852394e-06    3
-6.61473664e-09 2.24734724e-12-3.02970623e+04-9.99620546e-01                   4
! Refitting species OH:
!   max difference Cp/R = 4.9292e-09 at T =   995.3954 K
!   max difference H/RT = 5.2577e-10 at T =   995.3954 K
!   max difference S/R  = 2.7853e-08 at T =  1111.5115 K
!   T_match =  1000.000000 jump
!   Delta(Cp/R, H/RT, S/R) = ( 4.441e-16, 0.000e+00, 0.000e+00)
OH                IU3/03O   1 H  1    0    0G  200.0000 6000.0000 1000.00      1
 2.83853033e+00 1.10741289e-03-2.94000209e-07 4.20698729e-11-2.42289890e-15    2
 3.69787047e+03 5.84498896e+00 3.98520222e+00-2.34383598e-03 4.44744384e-06    3
-3.67375916e-09 1.27653907e-12 3.36950653e+03-7.65438077e-02                   4
! Refitting species H2O2:
!   max difference Cp/R = 7.4048e-10 at T =   995.3954 K
!   max difference H/RT = 8.1875e-08 at T =  1001.2012 K
!   max difference S/R  = 7.7019e-10 at T =  1001.2012 K
!   T_match =  1000.000000 jump
!   Delta(Cp/R, H/RT, S/R) = ( 0.000e+00, 1.776e-15, 0.000e+00)
H2O2              T 8/03H   2O   2    0    0G  200.0000 6000.0000 1000.00      1
 4.57977305e+00 4.05326003e-03-1.29844730e-06 1.98211400e-10-1.13968792e-14    2
-1.80030959e+04 6.67748429e-01 3.87148687e+00 2.89650860e-03 6.57196087e-06    3
-9.23920594e-09 3.42064990e-12-1.76669584e+04 5.06975743e+00                   4
! Refitting species HO2:
!   max difference Cp/R = 5.7086e-09 at T =   997.5976 K
!   max difference H/RT = 9.1290e-10 at T =  1002.4024 K
!   max difference S/R  = 2.0326e-08 at T =  1002.4024 K
!   T_match =  1000.000000 jump
!   Delta(Cp/R, H/RT, S/R) = (-8.882e-16, 0.000e+00, 0.000e+00)
HO2               T 1/09H   1O   2    0    0G  200.0000 5000.0000 1000.00      1
 4.17228741e+00 1.88117627e-03-3.46277286e-07 1.94657549e-11 1.76256905e-16    2
 3.45761314e+01 2.96009635e+00 3.91532944e+00-1.48787469e-03 1.15167353e-05    3
-1.25715746e-08 4.35421298e-12 2.98674805e+02 5.28114806e+00                   4
! Refitting species CO:
!   max difference Cp/R = 2.3555e-09 at T =   995.3954 K
!   max difference H/RT = 3.1969e-09 at T =  1001.2012 K
!   max difference S/R  = 1.9045e-08 at T =  5512.3123 K
!   T_match =  1000.000000 jump
!   Delta(Cp/R, H/RT, S/R) = ( 0.000e+00, 1.776e-15, 0.000e+00)
CO                RUS 79C   1O   1    0    0G  200.0000 6000.0000 1000.00      1
 3.04848590e+00 1.35172810e-03-4.85794050e-07 7.88536440e-11-4.69807460e-15    2
-1.42665015e+04 6.01683609e+00 3.62131906e+00-9.62964523e-04 2.05927391e-06    3
-3.58537054e-10-3.70515875e-13-1.43478331e+04 3.33925478e+00                   4
! Refitting species CO2:
!   max difference Cp/R = 1.4080e-08 at T =   995.3954 K
!   max difference H/RT = 2.0486e-08 at T =  1001.2012 K
!   max difference S/R  = 2.4834e-08 at T =  1239.2392 K
!   T_match =  1000.000000 jump
!   Delta(Cp/R, H/RT, S/R) = ( 8.882e-16, 0.000e+00, 0.000e+00)
CO2               L 7/88C   1O   2    0    0G  200.0000 6000.0000 1000.00      1
 4.63651110e+00 2.74145690e-03-9.95897590e-07 1.60386660e-10-9.16198570e-15    2
-4.90230378e+04-1.93362569e+00 2.15396596e+00 1.06958707e-02-1.21826568e-05    3
 8.60084411e-09-2.73472894e-12-4.83537808e+04 1.07220603e+01                   4
! Refitting species CH4:
!   max difference Cp/R = 7.6196e-09 at T =   995.3954 K
!   max difference H/RT = 2.2733e-08 at T =  1001.2012 K
!   max difference S/R  = 1.0445e-08 at T =  1001.2012 K
!   T_match =  1000.000000 jump
!   Delta(Cp/R, H/RT, S/R) = ( 3.553e-15,-1.776e-15,-3.553e-15)
CH4               G 8/99C  1 H  4    0    0 G  200.0000 6000.0000 1000.00      1
 1.65326226e+00 1.00263099e-02-3.31661238e-06 5.36483138e-10-3.14696758e-14    2
-1.00035602e+04 9.90916891e+00 4.49328779e+00-8.12795345e-03 3.27839315e-05    3
-2.85619167e-08 8.28062412e-12-1.01877875e+04-1.98359786e+00                   4
! Refitting species CH3:
!   max difference Cp/R = 4.9833e-09 at T =   995.3954 K
!   max difference H/RT = 3.1257e-08 at T =  1001.2012 K
!   max difference S/R  = 2.7508e-08 at T =  1012.8128 K
!   T_match =  1000.000000 jump
!   Delta(Cp/R, H/RT, S/R) = ( 0.000e+00,-7.105e-15, 0.000e+00)
CH3               IU0702C  1 H  3    0    0 G  200.0000 6000.0000 1000.00      1
 2.97812060e+00 5.79785200e-03-1.97558000e-06 3.07297900e-10-1.79174160e-14    2
 1.65114265e+04 4.72378192e+00 3.44917809e+00 3.88183584e-03 2.69199822e-07    3
-3.18443246e-10-1.91997429e-13 1.64413684e+04 2.51555867e+00                   4
! Refitting species CH3O2H:
!   max difference Cp/R = 5.1790e-09 at T =   995.3954 K
!   max difference H/RT = 1.4374e-08 at T =  1001.2012 K
!   max difference S/R  = 3.0440e-09 at T =  1018.6186 K
!   T_match =  1000.000000 jump
!   Delta(Cp/R, H/RT, S/R) = ( 0.000e+00, 3.553e-15, 0.000e+00)
CH3O2H            A 7/05C  1 H  4 O  2    0 G  200.0000 6000.0000 1000.00      1
 7.76538058e+00 8.61499712e-03-2.98006935e-06 4.68638071e-10-2.75339255e-14    2
-1.82871483e+04-1.43918824e+01 1.72602236e+00 2.74518212e-02-2.41407041e-05    3
 1.04368683e-08-1.63259522e-12-1.67837025e+04 1.61485414e+01                   4
! Refitting species CH3O2:
!   max difference Cp/R = 3.8978e-08 at T =  1372.6727 K
!   max difference H/RT = 1.5386e-08 at T =  1377.3774 K
!   max difference S/R  = 2.3688e-08 at T =  1377.3774 K
!   T_match =  1374.000000 jump
!   Delta(Cp/R, H/RT, S/R) = (-1.776e-15, 0.000e+00, 0.000e+00)
CH3O2                   H   3C   1O   2    0G  300.0000 5000.0000 1374.00      1
 6.47970487e+00 7.44401080e-03-2.52348555e-06 3.89577296e-10-2.25182399e-14    2
-1.56133490e+03-8.19295172e+00 1.90726447e+00 1.58052579e-02-7.39044747e-06    3
 1.23814782e-09-2.55089329e-15 2.61255821e+02 1.71993831e+01                   4
! Refitting species CH3OH:
!   max difference Cp/R = 3.5108e-09 at T =   200.0000 K
!   max difference H/RT = 1.6579e-08 at T =  1001.2012 K
!   max difference S/R  = 1.8410e-08 at T =  1001.2012 K
!   T_match =  1000.000000 jump
!   Delta(Cp/R, H/RT, S/R) = (-1.776e-15, 3.553e-15, 0.000e+00)
CH3OH             T06/02C   1H  4 O  1    0 G  200.0000 6000.0000 1000.00      1
 3.52726795e+00 1.03178783e-02-3.62892944e-06 5.77448016e-10-3.42182632e-14    2
-2.59916012e+04 5.17526492e+00 4.43217318e+00-5.94979676e-03 3.85993557e-05    3
-3.86957181e-08 1.23734325e-11-2.55020026e+04 4.06707616e+00                   4
! Refitting species CH3O:
!   max difference Cp/R = 4.1847e-09 at T =   995.3954 K
!   max difference H/RT = 5.0396e-10 at T =   995.3954 K
!   max difference S/R  = 1.9237e-08 at T =  1001.2012 K
!   T_match =  1000.000000 jump
!   Delta(Cp/R, H/RT, S/R) = (-1.776e-15, 0.000e+00, 0.000e+00)
CH3O              IU1/03C  1 H  3 O  1    0 G  200.0000 6000.0000 1000.00      1
 4.75779238e+00 7.44142474e-03-2.69705176e-06 4.38090504e-10-2.63537098e-14    2
 3.88694211e+02-1.95959859e+00 2.56153209e+00 6.90203654e-03 8.95827959e-06    3
-1.24693664e-08 3.96142035e-12 1.39884757e+03 1.12288947e+01                   4
! Refitting species CH2OH:
!   max difference Cp/R = 4.6445e-08 at T =   995.3954 K
!   max difference H/RT = 7.0797e-09 at T =  1001.2012 K
!   max difference S/R  = 2.7924e-08 at T =  1001.2012 K
!   T_match =  1000.000000 jump
!   Delta(Cp/R, H/RT, S/R) = ( 0.000e+00,-4.441e-16, 0.000e+00)
CH2OH             IU2/03C  1 H  3 O  1    0 G  200.0000 6000.0000 1000.00      1
 5.09314370e+00 5.94761260e-03-2.06497460e-06 3.23008173e-10-1.88125902e-14    2
-4.02688852e+03-1.84200940e+00 3.69487500e+00 5.26066004e-03 8.30264879e-06    3
-1.27583061e-08 4.78009958e-12-3.43047187e+03 6.48073951e+00                   4
! Refitting species CH2O:
!   max difference Cp/R = 2.5634e-08 at T =   995.3954 K
!   max difference H/RT = 3.9559e-08 at T =  1001.2012 K
!   max difference S/R  = 1.4253e-08 at T =  1210.2102 K
!   T_match =  1000.000000 jump
!   Delta(Cp/R, H/RT, S/R) = ( 2.665e-15,-1.776e-15, 0.000e+00)
CH2O              T 5/11H   2C   1O   1    0G  200.0000 6000.0000 1000.00      1
 3.16952665e+00 6.19320560e-03-2.25056366e-06 3.65975660e-10-2.20149458e-14    2
-1.45435232e+04 6.04559046e+00 4.23285889e+00-5.17543577e-03 2.33296513e-05    3
-2.09418592e-08 6.01091404e-12-1.43289002e+04 2.87326481e+00                   4
! Refitting species HCO:
!   max difference Cp/R = 1.2748e-09 at T =   995.3954 K
!   max difference H/RT = 4.3677e-09 at T =  1001.2012 K
!   max difference S/R  = 3.9625e-08 at T =  1001.2012 K
!   T_match =  1000.000000 jump
!   Delta(Cp/R, H/RT, S/R) = ( 0.000e+00, 0.000e+00, 0.000e+00)
HCO               T 5/03C  1 H  1 O  1    0 G  200.0000 6000.0000 1000.00      1
 3.92001542e+00 2.52279324e-03-6.71004164e-07 1.05615948e-10-7.43798261e-15    2
 3.65581228e+03 3.58239235e+00 3.97852039e+00-1.13494338e-03 7.54089546e-06    3
-5.57899331e-09 1.06450330e-12 3.89563981e+03 4.35692559e+00                   4
! Refitting species HO2CHO:
!   max difference Cp/R = 9.6210e-09 at T =  1377.3774 K
!   max difference H/RT = 2.0096e-08 at T =  1382.0821 K
!   max difference S/R  = 1.4227e-08 at T =  2788.7888 K
!   T_match =  1378.000000 jump
!   Delta(Cp/R, H/RT, S/R) = (-7.105e-15,-1.776e-15, 0.000e+00)
HO2CHO     6/26/95 THERMC   1H   2O   3    0G  300.0000 5000.0000 1378.00      1
 9.87503878e+00 4.64663708e-03-1.67230522e-06 2.68624413e-10-1.59595232e-14    2
-3.80475829e+04-2.24907293e+01 2.30993845e+00 2.27520996e-02-1.86301165e-05    3
 7.84096325e-09-1.40195367e-12-3.54706885e+04 1.79885254e+01                   4
! Refitting species HOCH2O:
!   max difference Cp/R = 2.4870e-08 at T =  1447.9479 K
!   max difference H/RT = 4.5158e-08 at T =  1452.6527 K
!   max difference S/R  = 3.1553e-08 at T =  1452.6527 K
!   T_match =  1452.000000 jump
!   Delta(Cp/R, H/RT, S/R) = ( 1.776e-15, 0.000e+00,-7.105e-15)
HOCH2O     2/16/99 THERMC   1H   3O   2    0G  300.0000 5000.0000 1452.00      1
 6.39521515e+00 7.43673043e-03-2.50422354e-06 3.84879712e-10-2.21778689e-14    2
-2.41122189e+04-6.64020207e+00 4.15891725e+00 7.22428460e-03 4.45927741e-06    3
-5.98235621e-09 1.63258709e-12-2.28073401e+04 7.26790295e+00                   4
! Refitting species O2CHO:
!   max difference Cp/R = 2.5556e-08 at T =  1367.9680 K
!   max difference H/RT = 8.9109e-09 at T =  1372.6727 K
!   max difference S/R  = 6.3949e-08 at T =  1372.6727 K
!   T_match =  1368.000000 jump
!   Delta(Cp/R, H/RT, S/R) = (-1.776e-15,-8.882e-16, 0.000e+00)
O2CHO      6/26/95 THERMC   1H   1O   3    0G  300.0000 5000.0000 1368.00      1
 7.24075139e+00 4.63312951e-03-1.63693995e-06 2.59706693e-10-1.52964699e-14    2
-1.87000559e+04-6.49222549e+00 3.84093324e+00 1.14177746e-02-7.10584508e-06    3
 2.69099859e-09-5.49615193e-13-1.73473277e+04 1.22871809e+01                   4
! Refitting species HOCHO:
!   max difference Cp/R = 1.4901e-08 at T =   995.3954 K
!   max difference H/RT = 2.0012e-08 at T =  1001.2012 K
!   max difference S/R  = 3.4078e-08 at T =  1001.2012 K
!   T_match =  1000.000000 jump
!   Delta(Cp/R, H/RT, S/R) = ( 0.000e+00,-7.105e-15, 0.000e+00)
HOCHO             L 8/88H   2C   1O   2    0G  200.0000 6000.0000 1000.00      1
 4.61383160e+00 6.44963640e-03-2.29082510e-06 3.67160470e-10-2.18736750e-14    2
-4.75068644e+04 8.53319470e-01 3.03028053e+00 3.76659232e-03 1.38637918e-05    3
-1.75587368e-08 6.01600184e-12-4.66927644e+04 1.08636686e+01                   4
! Refitting species OCHO:
!   max difference Cp/R = 5.7086e-08 at T =   995.3954 K
!   max difference H/RT = 2.9796e-08 at T =  1001.2012 K
!   max difference S/R  = 1.1575e-08 at T =  1001.2012 K
!   T_match =  1000.000000 jump
!   Delta(Cp/R, H/RT, S/R) = ( 0.000e+00, 0.000e+00, 0.000e+00)
OCHO              ATCT/AC  1 O  2 H  1    0 G  200.0000 6000.0000 1000.00      1
 4.14394211e+00 5.59738818e-03-1.99794019e-06 3.16179193e-10-1.85614483e-14    2
-1.72415925e+04 5.08077793e+00 4.21040253e+00-1.16286875e-04 1.35851133e-05    3
-1.39747442e-08 4.33652316e-12-1.69438526e+04 6.21870395e+00                   4
! Refitting species C2H6:
!   max difference Cp/R = 1.6707e-09 at T =   914.1141 K
!   max difference H/RT = 1.8614e-09 at T =  1001.2012 K
!   max difference S/R  = 3.1363e-09 at T =  1030.2302 K
!   T_match =  1000.000000 jump
!   Delta(Cp/R, H/RT, S/R) = ( 0.000e+00, 0.000e+00, 0.000e+00)
C2H6              G 8/88C   2H 6    0      0G  200.0000 6000.0000 1000.00      1
 4.04666411e+00 1.53538802e-02-5.47039485e-06 8.77826544e-10-5.23167531e-14    2
-1.24339640e+04-9.59588645e-01 2.83640017e+00 6.77679975e-03 2.36441111e-05    3
-2.67788882e-08 8.27723644e-12-1.13917271e+04 8.55696256e+00                   4
! Refitting species C2H5:
!   max difference Cp/R = 1.9625e-09 at T =  1335.0350 K
!   max difference H/RT = 1.4190e-08 at T =  1391.4915 K
!   max difference S/R  = 5.4278e-08 at T =  4228.4284 K
!   T_match =  1387.000000 jump
!   Delta(Cp/R, H/RT, S/R) = (-7.105e-15, 0.000e+00, 7.105e-15)
C2H5       8/ 4/ 4 THERMC   2H   5    0    0G  300.0000 5000.0000 1387.00      1
 5.88784390e+00 1.03076793e-02-3.46844396e-06 5.32499257e-10-3.06512651e-14    2
 1.15084173e+04-8.49429318e+00 1.24876030e+00 1.81993979e-02-7.34650895e-06    3
 7.72316233e-10 1.08200655e-13 1.34367100e+04 1.75116749e+01                   4
! Refitting species C2H5O2H:
!   max difference Cp/R = 3.6540e-08 at T =  1386.7868 K
!   max difference H/RT = 2.0579e-08 at T =  1391.4915 K
!   max difference S/R  = 7.0425e-09 at T =  1513.8138 K
!   T_match =  1390.000000 jump
!   Delta(Cp/R, H/RT, S/R) = (-1.066e-14, 0.000e+00, 7.105e-15)
C2H5O2H    9/ 1/12      C   2H   6O   2    0G  300.0000 5000.0000 1390.00      1
 1.04823538e+01 1.34779879e-02-4.62179078e-06 7.18618519e-10-4.17307436e-14    2
-2.46504304e+04-2.84206369e+01 1.52942539e+00 3.58974132e-02-2.84417042e-05    3
 1.35155266e-08-2.86927110e-12-2.15488001e+04 1.94033968e+01                   4
! Refitting species C2H5O2:
!   max difference Cp/R = 1.0300e-07 at T =  1386.7868 K
!   max difference H/RT = 3.6568e-08 at T =  1391.4915 K
!   max difference S/R  = 1.3902e-07 at T =  1410.3103 K
!   T_match =  1389.000000 jump
!   Delta(Cp/R, H/RT, S/R) = (-7.105e-15, 0.000e+00,-7.105e-15)
C2H5O2     9/ 1/12      C   2H   5O   2    0G  300.0000 5000.0000 1389.00      1
 9.50282570e+00 1.20429839e-02-4.09491581e-06 6.33049241e-10-3.66133788e-14    2
-7.36697577e+03-2.21672928e+01 3.74853977e+00 2.33123821e-02-1.25195821e-05    3
 3.82927540e-09-6.30431021e-13-5.08014196e+03 9.64389952e+00                   4
! Refitting species C2H4:
!   max difference Cp/R = 1.2138e-07 at T =  1391.4915 K
!   max difference H/RT = 3.1014e-08 at T =  1396.1962 K
!   max difference S/R  = 1.2547e-07 at T =  1396.1962 K
!   T_match =  1392.000000 jump
!   Delta(Cp/R, H/RT, S/R) = ( 1.776e-15, 0.000e+00, 0.000e+00)
C2H4       8/12/15      C   2H   4    0    0G  300.0000 5000.0000 1392.00      1
 5.07061289e+00 9.11140768e-03-3.10506692e-06 4.80733851e-10-2.78321396e-14    2
 3.66727958e+03-6.64101185e+00 3.41439114e-01 1.93256236e-02-1.21179449e-05    3
 4.62943256e-09-8.84147883e-13 5.45865404e+03 1.91786460e+01                   4
! Refitting species C2H3:
!   max difference Cp/R = 3.9036e-08 at T =  1396.1962 K
!   max difference H/RT = 2.2061e-08 at T =  1400.9009 K
!   max difference S/R  = 1.5493e-08 at T =  1400.9009 K
!   T_match =  1400.000000 jump
!   Delta(Cp/R, H/RT, S/R) = ( 0.000e+00,-7.105e-15, 0.000e+00)
C2H3       8/12/15      C   2H   3    0    0G  300.0000 5000.0000 1400.00      1
 4.99675415e+00 6.55838271e-03-2.20921909e-06 3.39300272e-10-1.95316926e-14    2
 3.34633809e+04-3.01102526e+00 1.13603797e+00 1.65566213e-02-1.30253793e-05    3
 6.11539752e-09-1.26556320e-12 3.47562185e+04 1.74726692e+01                   4
! Refitting species C2H3OO:
!   max difference Cp/R = 1.8988e-08 at T =   998.3105 K
!   max difference H/RT = 2.5102e-09 at T =   998.3105 K
!   max difference S/R  = 1.4475e-08 at T =  1000.0141 K
!   T_match =  1000.000000 jump
!   Delta(Cp/R, H/RT, S/R) = ( 0.000e+00, 3.553e-15, 0.000e+00)
C2H3OO                  H   3C   2O   2     G  298.1500 2000.0000 1000.00      1
 6.04483828e+00 1.45511127e-02-7.50974622e-06 1.83488280e-09-1.66689681e-13    2
 1.01699245e+04-3.71144907e+00 1.09784827e+00 2.95333198e-02-2.27744257e-05    3
 7.20558045e-09-3.07924957e-13 1.13996101e+04 2.13563562e+01                   4
! Refitting species C2H2:
!   max difference Cp/R = 1.5794e-09 at T =   919.9199 K
!   max difference H/RT = 1.6032e-08 at T =  1001.2012 K
!   max difference S/R  = 1.9459e-08 at T =  1001.2012 K
!   T_match =  1000.000000 jump
!   Delta(Cp/R, H/RT, S/R) = ( 1.776e-15, 0.000e+00, 0.000e+00)
C2H2              G 1/91C  2 H  2    0    0 G  200.0000 6000.0000 1000.00      1
 4.65878489e+00 4.88396667e-03-1.60828888e-06 2.46974544e-10-1.38605959e-14    2
 2.57594967e+04-3.99831899e+00 7.98636686e-01 2.34463249e-02-3.57677745e-05    3
 2.83194640e-08-8.62907444e-12 2.64298814e+04 1.39803317e+01                   4
! Refitting species C2H5O:
!   max difference Cp/R = 4.2479e-08 at T =  1466.7668 K
!   max difference H/RT = 1.6915e-08 at T =  1471.4715 K
!   max difference S/R  = 4.6366e-08 at T =  1471.4715 K
!   T_match =  1467.000000 jump
!   Delta(Cp/R, H/RT, S/R) = ( 3.553e-15, 0.000e+00, 0.000e+00)
C2H5O      8/12/15      C   2H   5O   1    0G  300.0000 5000.0000 1467.00      1
 8.19120635e+00 1.10391986e-02-3.75270536e-06 5.80275784e-10-3.35735146e-14    2
-5.66937972e+03-1.90141798e+01 2.93439365e+00 1.75205642e-02-2.25123959e-06    3
-3.84142479e-09 1.36493554e-12-3.29261452e+03 1.12232792e+01                   4
! Refitting species PC2H4OH:
!   max difference Cp/R = 1.5346e-07 at T =  1391.4915 K
!   max difference H/RT = 4.3064e-08 at T =  1396.1962 K
!   max difference S/R  = 1.1615e-07 at T =  1396.1962 K
!   T_match =  1395.000000 jump
!   Delta(Cp/R, H/RT, S/R) = ( 3.553e-15,-1.776e-15, 0.000e+00)
PC2H4OH    8/12/15      C   2H   5O   1    0G  300.0000 5000.0000 1395.00      1
 8.06750150e+00 1.06143554e-02-3.57999360e-06 5.50363760e-10-3.17051769e-14    2
-6.92343697e+03-1.53785439e+01 2.42846109e+00 2.38378235e-02-1.64685779e-05    3
 6.95215069e-09-1.37977346e-12-4.89724999e+03 1.50290887e+01                   4
! Refitting species O2C2H4OH:
!   max difference Cp/R = 1.1514e-08 at T =  1504.4044 K
!   max difference H/RT = 8.1818e-09 at T =  1509.1091 K
!   max difference S/R  = 3.7621e-08 at T =  1509.1091 K
!   T_match =  1506.000000 jump
!   Delta(Cp/R, H/RT, S/R) = (-7.105e-15,-2.665e-15, 0.000e+00)
O2C2H4OH   9/ 1/12 THERMC   2H   5O   3    0G  300.0000 5000.0000 1506.00      1
 1.27503881e+01 1.11514325e-02-3.83473891e-06 5.98155829e-10-3.48372108e-14    2
-2.52791766e+04-3.54341257e+01 7.10422796e+00 1.55345419e-02 3.11186235e-06    3
-7.81266747e-09 2.30159681e-12-2.24593719e+04-2.02697596e+00                   4
! Refitting species CH3CHO:
!   max difference Cp/R = 2.2886e-08 at T =   995.3954 K
!   max difference H/RT = 8.6121e-09 at T =  1001.2012 K
!   max difference S/R  = 1.2276e-08 at T =  1018.6186 K
!   T_match =  1000.000000 jump
!   Delta(Cp/R, H/RT, S/R) = ( 1.776e-15, 0.000e+00, 0.000e+00)
CH3CHO            L 8/88C  2 H  4 O   1   0 G  200.0000 6000.0000 1000.00      1
 5.40411080e+00 1.17230590e-02-4.22631370e-06 6.83724510e-10-4.09848630e-14    2
-2.25819763e+04-3.47320727e+00 3.51802546e+00 7.02949666e-03 1.73122665e-05    3
-2.07684076e-08 6.45221468e-12-2.14642434e+04 9.00709173e+00                   4
! Refitting species CH2CHO:
!   max difference Cp/R = 3.6788e-08 at T =   995.3954 K
!   max difference H/RT = 1.2371e-08 at T =  1001.2012 K
!   max difference S/R  = 7.2429e-08 at T =  1047.6476 K
!   T_match =  1000.000000 jump
!   Delta(Cp/R, H/RT, S/R) = ( 1.776e-15, 0.000e+00, 0.000e+00)
CH2CHO            T03/10C  2 H  3 O  1    0 G  200.0000 6000.0000 1000.00      1
 6.53928338e+00 7.80238629e-03-2.76413612e-06 4.42098906e-10-2.62954290e-14    2
-1.17970104e+03-8.71486698e+00 1.82918680e+00 1.82602581e-02-7.92053143e-06    3
-1.77833974e-09 1.60276324e-12 2.49555970e+02 1.62745349e+01                   4
! Refitting species O2CH2CHO:
!   max difference Cp/R = 5.2827e-08 at T =  1391.4915 K
!   max difference H/RT = 3.6967e-08 at T =  1396.1962 K
!   max difference S/R  = 7.5554e-08 at T =  1560.8609 K
!   T_match =  1393.000000 jump
!   Delta(Cp/R, H/RT, S/R) = ( 0.000e+00,-8.882e-16, 0.000e+00)
O2CH2CHO          BOZ_03C   2H   3O   3    0G  300.0000 5000.0000 1393.00      1
 1.11807543e+01 9.14479256e-03-3.15089833e-06 4.91944238e-10-2.86639180e-14    2
-1.55701480e+04-2.87787346e+01-1.66034611e+00 4.69740965e-02-4.82066730e-05    3
 2.56978120e-08-5.48880316e-12-1.17888380e+04 3.76277024e+01                   4
! Refitting species HO2CH2CO:
!   max difference Cp/R = 2.7055e-08 at T =  1382.0821 K
!   max difference H/RT = 3.0457e-08 at T =  1386.7868 K
!   max difference S/R  = 1.7033e-08 at T =  1386.7868 K
!   T_match =  1386.000000 jump
!   Delta(Cp/R, H/RT, S/R) = (-1.066e-14, 8.882e-16, 0.000e+00)
HO2CH2CO          BOZ_03C   2H   3O   3    0G  300.0000 5000.0000 1386.00      1
 1.04146322e+01 1.12680116e-02-5.17494839e-06 1.00333285e-09-6.68165911e-14    2
-1.40940440e+04-2.27876250e+01 2.16260458e+00 3.61146057e-02-3.36196744e-05    3
 1.56438493e-08-2.91854702e-12-1.18667192e+04 1.94301494e+01                   4
! Refitting species CH2CO:
!   max difference Cp/R = 6.9634e-08 at T =   996.2963 K
!   max difference H/RT = 2.5848e-08 at T =  1001.0010 K
!   max difference S/R  = 3.6676e-08 at T =  1137.4374 K
!   T_match =  1000.000000 jump
!   Delta(Cp/R, H/RT, S/R) = ( 7.105e-15, 0.000e+00, 0.000e+00)
CH2CO                   H   2C   2O   1    0G  300.0000 5000.0000 1000.00      1
 5.35869367e+00 6.95641586e-03-2.64802637e-06 4.65067592e-10-3.08641820e-14    2
-7.90282194e+03-3.98437841e+00 1.40422504e+00 2.30605221e-02-3.05932598e-05    3
 2.38610901e-08-7.63129094e-12-7.01424892e+03 1.53020661e+01                   4
! Refitting species HCCO:
!   max difference Cp/R = 7.0278e-08 at T =   995.3954 K
!   max difference H/RT = 3.1942e-08 at T =  1001.2012 K
!   max difference S/R  = 8.6562e-09 at T =   995.3954 K
!   T_match =  1000.000000 jump
!   Delta(Cp/R, H/RT, S/R) = ( 1.776e-15,-3.553e-15, 0.000e+00)
HCCO              T 4/09H  1 C  2 O  1    0 G  200.0000 6000.0000 1000.00      1
 5.91479333e+00 3.71408730e-03-1.30137010e-06 2.06473345e-10-1.21476759e-14    2
 1.93584056e+04-5.50650607e+00 2.00918496e+00 2.09973225e-02-3.25662450e-05    3
 2.65089510e-08-8.42737728e-12 2.01514479e+04 1.31579979e+01                   4
! Refitting species IC3H7:
!   max difference Cp/R = 1.3783e-08 at T =   994.3403 K
!   max difference H/RT = 8.3094e-09 at T =  1000.0480 K
!   max difference S/R  = 2.4038e-08 at T =  1918.9890 K
!   T_match =  1000.000000 jump
!   Delta(Cp/R, H/RT, S/R) = ( 7.105e-15, 0.000e+00, 0.000e+00)
IC3H7      8/12/15      C   3H   7    0    0G  298.0000 6000.0000 1000.00      1
 6.70775549e+00 1.74048076e-02-6.07615926e-06 9.60084351e-10-5.65656490e-14    2
 7.55395018e+03-1.03684017e+01-9.26483363e-01 4.17999113e-02-5.00882285e-05    3
 4.63358670e-08-1.81811440e-11 9.94229691e+03 2.93838666e+01                   4
! Refitting species NC3H7:
!   max difference Cp/R = 1.1717e-07 at T =   994.3403 K
!   max difference H/RT = 3.8942e-08 at T =  1000.0480 K
!   max difference S/R  = 4.3635e-08 at T =  1000.0480 K
!   T_match =  1000.000000 jump
!   Delta(Cp/R, H/RT, S/R) = (-1.421e-14, 0.000e+00, 0.000e+00)
NC3H7      8/12/15      C   3H   7    0    0G  298.0000 6000.0000 1000.00      1
 7.48614243e+00 1.65769478e-02-5.74876481e-06 9.04103694e-10-5.30867231e-14    2
 8.93724950e+03-1.42593209e+01-2.22640652e+00 5.31599989e-02-7.28941208e-05    3
 6.42958582e-08-2.31699874e-11 1.15154997e+04 3.44708576e+01                   4
! Refitting species NC3H7O2H:
!   max difference Cp/R = 7.6436e-08 at T =  1391.4915 K
!   max difference H/RT = 1.0179e-08 at T =  1396.1962 K
!   max difference S/R  = 3.8324e-08 at T =  1485.5856 K
!   T_match =  1392.000000 jump
!   Delta(Cp/R, H/RT, S/R) = ( 0.000e+00,-1.776e-15, 0.000e+00)
NC3H7O2H   8/12/15      C   3H   8O   2    0G  300.0000 5000.0000 1392.00      1
 1.42246236e+01 1.74340964e-02-5.97063522e-06 9.27753851e-10-5.38585168e-14    2
-2.88097083e+04-4.74283466e+01 1.09904286e+00 4.74265583e-02-3.30997290e-05    3
 1.29356136e-08-2.30308021e-12-2.41254083e+04 2.34303750e+01                   4
! Refitting species NC3H7O2:
!   max difference Cp/R = 2.8237e-08 at T =  1386.7868 K
!   max difference H/RT = 7.9611e-09 at T =  1391.4915 K
!   max difference S/R  = 4.0352e-09 at T =  1386.7868 K
!   T_match =  1390.000000 jump
!   Delta(Cp/R, H/RT, S/R) = ( 0.000e+00,-1.776e-15, 0.000e+00)
NC3H7O2    8/12/15      C   3H   7O   2    0G  300.0000 5000.0000 1390.00      1
 1.32753283e+01 1.61303126e-02-5.52348308e-06 8.58197168e-10-4.98172586e-14    2
-1.15978027e+04-4.15025867e+01 1.90405169e+00 4.12244403e-02-2.72411929e-05    3
 1.00792252e-08-1.74093011e-12-7.44262948e+03 2.02150821e+01                   4
! Refitting species IC3H7O2:
!   max difference Cp/R = 8.2796e-09 at T =  1405.6056 K
!   max difference H/RT = 1.9854e-08 at T =  1410.3103 K
!   max difference S/R  = 2.0410e-08 at T =  1429.1291 K
!   T_match =  1407.000000 jump
!   Delta(Cp/R, H/RT, S/R) = ( 0.000e+00, 0.000e+00, 0.000e+00)
IC3H7O2    8/12/15      C   3H   7O   2    0G  300.0000 5000.0000 1407.00      1
 1.35268120e+01 1.54306581e-02-5.17464218e-06 7.92548669e-10-4.55415379e-14    2
-1.33897846e+04-4.40404249e+01 2.39292935e+00 4.29095930e-02-3.21079500e-05    3
 1.34242591e-08-2.44268287e-12-9.64972032e+03 1.52884973e+01                   4
! Refitting species NC3H7O:
!   max difference Cp/R = 1.5231e-07 at T =  1382.0821 K
!   max difference H/RT = 3.7728e-08 at T =  1386.7868 K
!   max difference S/R  = 1.5678e-07 at T =  1386.7868 K
!   T_match =  1386.000000 jump
!   Delta(Cp/R, H/RT, S/R) = ( 3.553e-15, 0.000e+00, 0.000e+00)
NC3H7O     8/12/15      C   3H   7O   1    0G  300.0000 5000.0000 1386.00      1
 1.15279177e+01 1.53775991e-02-5.23946272e-06 8.11382512e-10-4.69927603e-14    2
-9.84868013e+03-3.54205398e+01 2.47730292e+00 3.13732136e-02-1.34929800e-05    3
 1.33819609e-09 3.14238642e-13-6.19881581e+03 1.50099728e+01                   4
! Refitting species C3H6OOH1-2:
!   max difference Cp/R = 2.9945e-08 at T =  1386.7868 K
!   max difference H/RT = 4.5157e-09 at T =  1391.4915 K
!   max difference S/R  = 5.3286e-09 at T =  1386.7868 K
!   T_match =  1387.000000 jump
!   Delta(Cp/R, H/RT, S/R) = (-1.421e-14, 0.000e+00, 0.000e+00)